generators/autotest/test_windturbine_FBS.glm
clock {
     timezone PST+8PDT;
     timestamp '2009-01-01 00:00:00';
     stoptime '2009-01-05 00:00:00';
}

#define PF=FBS

#set profiler=1;
#set double_format=%+.12lg
#set randomseed=10;
#set relax_naming_rules=1;

module tape;
module climate;
module generators;
module assert;

module powerflow {
    solver_method ${PF};
	line_limits FALSE;
	default_maximum_voltage_error 1e-9;
};

//#set savefile="test_my_turbine_${PF}.xml"

object climate {
    tmyfile "../Standard_Weather.csv";
    reader csvreader;
};

object csv_reader {
	name csvreader;
	filename "../Standard_Weather.csv";
}

object overhead_line_conductor:100 {
	geometric_mean_radius 0.0244;
	resistance 0.306;
}

object overhead_line_conductor:101 {
	geometric_mean_radius 0.00814;
	resistance 0.592;
}

object line_spacing:200 {
	distance_AB 2.5;
	distance_BC 4.5;
	distance_AC 7.0;
	distance_AN 5.656854;
	distance_BN 4.272002;
	distance_CN 5.0;
}

object line_configuration:300 {
	conductor_A overhead_line_conductor:100;
	conductor_B overhead_line_conductor:100;
	conductor_C overhead_line_conductor:100;
	conductor_N overhead_line_conductor:101;
	spacing line_spacing:200;
}

object transformer_configuration:400 {
	connect_type WYE_WYE;
	power_rating 6000;
	primary_voltage 12470;
	secondary_voltage 4160;
	resistance 0.01;
	reactance 0.06;
	install_type PADMOUNT;
}

object node:1 {
	phases "ABCN";
	bustype SWING;
	voltage_A +7199.558+0.000j;
	voltage_B -3599.779-6235.000j;
	voltage_C -3599.779+6235.000j;
	nominal_voltage 7200;
}

object overhead_line:12 {
	phases "ABCN";
	from node:1;
	to node:2;
	length 2000;
	configuration line_configuration:300;
}

object node:2 {
	phases "ABCN";
	voltage_A +7199.558+0.000j;
	voltage_B -3599.779-6235.000j;
	voltage_C -3599.779+6235.000j;
	nominal_voltage 7200;
}

object transformer:23 {
	phases "ABCN";
	from node:2;
	to node:3;
	configuration transformer_configuration:400;
	name transformer23;
	object double_assert {
		object player {
			property value;
			file ../windpower_assert_pc.player;
		};
		target power_out_real;
		// Solutions were determined from FBS - represents
		//  less than a 0.1% difference between the answers
		within 5;
	};
	object recorder {
		property power_out_real;
		interval 900;
		file test_windpower_${PF}.csv;
	};
}

object node:3 {
	phases "ABCN";
	voltage_A +2401.777+0.000j;
	voltage_B -1200.889-2080.000j;
	voltage_C -1200.889+2080.000j;
	nominal_voltage 2400;
}

object overhead_line:34 {
	phases "ABCN";
	from node:3;
	to load:4;
	length 2500;
	configuration line_configuration:300;
}

object load:4 {
	phases "ABCN";
	voltage_A +2401.777+0.000j;
	voltage_B -1200.889-2080.000j;
	voltage_C -1200.889+2080.000j;
	constant_power_A +2275000.000+790174.031j;
	constant_power_B +2800000.000+871779.789j;
	constant_power_C +2375000.000+780624.750j;
	maximum_voltage_error 0.001;
	nominal_voltage 2400;
}

// Add Vestas wind turbine


object transformer_configuration:600 {
	connect_type WYE_WYE;
	power_rating 6000;
	primary_voltage 4160;
	secondary_voltage 690;
	resistance 0.01;
	reactance 0.06;
	install_type PADMOUNT;
}



object transformer_configuration:800 {
	connect_type SINGLE_PHASE_CENTER_TAPPED;
	power_rating 3000;
	primary_voltage 4160;
	secondary_voltage 240;
	resistance 0.01;
	reactance 0.06;
	install_type PADMOUNT;
}

object transformer {
	phases "BS";
	from load:4;
	to TrplMtr1;
	configuration transformer_configuration:800;
}

object triplex_meter {
	name TrplMtr1;
	phases BS;
	nominal_voltage 240;
}
//Tests use case where user specifies turbine capacity, height, and p.u. power curve. Also tests the triplex implementation
object windturb_dg {
	parent TrplMtr1;
	phases BS;
	name windturb1;
	Rated_VA 15600;
	turbine_height 37;
	power_curve_csv "../WT_pow_curve.csv";
	power_curve_pu true;
	
	object multi_recorder {
		file test_wind_power_${PF}1.csv;
		interval 900;
		property voltage_12, voltage_1N, voltage_2N, current_12, power_12, wind_speed,wind_speed_adjusted,Cp,TrplMtr1:measured_real_power,total_real_power;
	};
}
//----------------------------------------------------------------------
object transformer {
	phases "AS";
	from load:4;
	to TrplMtr2;
	configuration transformer_configuration:800;
}

object triplex_meter {
	name TrplMtr2;
	phases AS;
	nominal_voltage 240;
	//object multi_recorder {
	//	file test_wind_power_${PF}2_meter.csv;
	//	interval 900;
	//	property measured_voltage_1, measured_voltage_2, measured_voltage_N, measured_current_1, measured_current_2, measured_current_N, indiv_measured_power_1, indiv_measured_power_2, indiv_measured_power_N, measured_real_power, measured_reactive_power;
	//};
}
//Tests use case where user specifies turbine height and power curve in watts. Also tests the triplex implementation
object windturb_dg {
	parent TrplMtr2;
	phases AS;
	name windturb2;
	turbine_height 40;
	power_curve_csv "../WT_pow_curve_watts.csv";
	
	object multi_recorder {
		file test_wind_power_${PF}2.csv;
		interval 900;
		property voltage_12, voltage_1N, voltage_2N, current_12, power_12, wind_speed,wind_speed_adjusted,Cp,TrplMtr2:measured_real_power,total_real_power;
	};
}


//----------------------------------------------------------------------
object transformer {
	phases "ABCN";
	from load:4;
	to my_meter3;
	configuration transformer_configuration:600;
}

object meter {
	name my_meter3;
	phases ABCN;
	nominal_voltage 600;
}

//Tests use case when user specifies nothing
object windturb_dg {
	parent my_meter3;
	phases ABCN;
	name windturb3;
	
	object multi_recorder {
		file test_wind_power_${PF}3.csv;
		interval 900;
		property voltage_A, voltage_B, voltage_C, current_A, current_B, current_C, power_A, power_B, power_C, wind_speed,wind_speed_adjusted,Cp,my_meter3:measured_real_power,total_real_power;
	};
}
//----------------------------------------------------------------------
object transformer {
	phases "ABCN";
	from load:4;
	to my_meter4;
	configuration transformer_configuration:600;
}

object meter {
	name my_meter4;
	phases ABCN;
	nominal_voltage 600;
}

//Tests use case when user specifies a generic turbine
object windturb_dg {
	parent my_meter4;
	phases ABCN;
	name windturb4;
	Turbine_Model GEN_TURB_POW_CURVE_1_5MW;
	
	object multi_recorder {
		file test_wind_power_${PF}4.csv;
		interval 900;
		property voltage_A, voltage_B, voltage_C, current_A, current_B, current_C, power_A, power_B, power_C, wind_speed,wind_speed_adjusted,Cp,my_meter4:measured_real_power,total_real_power;
	};
}
//----------------------------------------------------------------------
object transformer {
	phases "ABCN";
	from load:4;
	to my_meter5;
	configuration transformer_configuration:600;
}

object meter {
	name my_meter5;
	phases ABCN;
	nominal_voltage 600;
}

//Tests use case when user specifies turbine capacity only
object windturb_dg {
	parent my_meter5;
	phases ABCN;
	name windturb5;
	Rated_VA 5000000;
	
	object multi_recorder {
		file test_wind_power_${PF}5.csv;
		interval 900;
		property voltage_A, voltage_B, voltage_C, current_A, current_B, current_C, power_A, power_B, power_C, wind_speed,wind_speed_adjusted,Cp,my_meter5:measured_real_power,total_real_power;
	};
}
//----------------------------------------------------------------------
object transformer {
	phases "ABCN";
	from load:4;
	to my_meter6;
	configuration transformer_configuration:600;
}

object meter {
	name my_meter6;
	phases ABCN;
	nominal_voltage 400;
}

//Tests use case when user specifies turbine capacity and height
object windturb_dg {
	parent my_meter6;
	phases ABCN;
	name windturb6;
	Rated_VA 10000;
	turbine_height 40;
	
	object multi_recorder {
		file test_wind_power_${PF}6.csv;
		interval 900;
		property voltage_A, voltage_B, voltage_C, current_A, current_B, current_C, power_A, power_B, power_C, wind_speed,wind_speed_adjusted,Cp,my_meter6:measured_real_power,total_real_power;
	};
}
//-------------------------------------------------------------------

